6992804
  -OEChem-04231913583D

 23 22  0     0  0  0  0  0  0999 V2000
   -1.1179    0.1490   -0.2010 N   0  3  0  0  0  0  0  0  0  0  0  0
    2.3873    0.9707   -0.3120 N   0  3  0  0  0  0  0  0  0  0  0  0
   -0.2041    0.0773    0.9629 C   0  0  0  0  0  0  0  0  0  0  0  0
    0.9880   -0.8233    0.6569 C   0  0  0  0  0  0  0  0  0  0  0  0
    1.8588   -0.3973   -0.5204 C   0  0  0  0  0  0  0  0  0  0  0  0
   -1.7322   -1.1871   -0.5431 C   0  0  0  0  0  0  0  0  0  0  0  0
   -2.1799    1.2108   -0.0432 C   0  0  0  0  0  0  0  0  0  0  0  0
   -0.5707    0.4425   -1.0200 H   0  0  0  0  0  0  0  0  0  0  0  0
   -0.7735   -0.3060    1.8175 H   0  0  0  0  0  0  0  0  0  0  0  0
    0.1216    1.0956    1.1997 H   0  0  0  0  0  0  0  0  0  0  0  0
    1.6179   -0.8463    1.5566 H   0  0  0  0  0  0  0  0  0  0  0  0
    0.6685   -1.8609    0.5106 H   0  0  0  0  0  0  0  0  0  0  0  0
    1.3248   -0.3982   -1.4741 H   0  0  0  0  0  0  0  0  0  0  0  0
    2.7294   -1.0547   -0.6078 H   0  0  0  0  0  0  0  0  0  0  0  0
   -0.9509   -1.8528   -0.9147 H   0  0  0  0  0  0  0  0  0  0  0  0
   -2.2167   -1.5900    0.3501 H   0  0  0  0  0  0  0  0  0  0  0  0
   -2.4647   -1.0288   -1.3397 H   0  0  0  0  0  0  0  0  0  0  0  0
   -2.8147    0.9413    0.8050 H   0  0  0  0  0  0  0  0  0  0  0  0
   -1.6787    2.1671    0.1281 H   0  0  0  0  0  0  0  0  0  0  0  0
   -2.7570    1.2554   -0.9705 H   0  0  0  0  0  0  0  0  0  0  0  0
    3.0563    1.2226   -1.0518 H   0  0  0  0  0  0  0  0  0  0  0  0
    2.8805    1.0561    0.5867 H   0  0  0  0  0  0  0  0  0  0  0  0
    1.6412    1.6782   -0.3289 H   0  0  0  0  0  0  0  0  0  0  0  0
  1  3  1  0  0  0  0
  1  6  1  0  0  0  0
  1  7  1  0  0  0  0
  1  8  1  0  0  0  0
  2  5  1  0  0  0  0
  2 21  1  0  0  0  0
  2 22  1  0  0  0  0
  2 23  1  0  0  0  0
  3  4  1  0  0  0  0
  3  9  1  0  0  0  0
  3 10  1  0  0  0  0
  4  5  1  0  0  0  0
  4 11  1  0  0  0  0
  4 12  1  0  0  0  0
  5 13  1  0  0  0  0
  5 14  1  0  0  0  0
  6 15  1  0  0  0  0
  6 16  1  0  0  0  0
  6 17  1  0  0  0  0
  7 18  1  0  0  0  0
  7 19  1  0  0  0  0
  7 20  1  0  0  0  0
M  CHG  2   1   1   2   1
M  END
> <PUBCHEM_COMPOUND_CID>
6992804

> <PUBCHEM_CONFORMER_RMSD>
0.4

> <PUBCHEM_CONFORMER_DIVERSEORDER>
5
15
8
7
13
9
14
11
4
6
3
12
10
1
2

> <PUBCHEM_MMFF94_PARTIAL_CHARGES>
10
1 -0.96
2 -0.85
21 0.45
22 0.45
23 0.45
3 0.5
5 0.5
6 0.5
7 0.5
8 0.45

> <PUBCHEM_EFFECTIVE_ROTOR_COUNT>
3

> <PUBCHEM_PHARMACOPHORE_FEATURES>
4
1 1 cation
1 1 donor
1 2 cation
1 2 donor

> <PUBCHEM_HEAVY_ATOM_COUNT>
7

> <PUBCHEM_ATOM_DEF_STEREO_COUNT>
0

> <PUBCHEM_ATOM_UDEF_STEREO_COUNT>
0

> <PUBCHEM_BOND_DEF_STEREO_COUNT>
0

> <PUBCHEM_BOND_UDEF_STEREO_COUNT>
0

> <PUBCHEM_ISOTOPIC_ATOM_COUNT>
0

> <PUBCHEM_COMPONENT_COUNT>
1

> <PUBCHEM_CACTVS_TAUTO_COUNT>
1

> <PUBCHEM_CONFORMER_ID>
006AB3A400000005

> <PUBCHEM_MMFF94_ENERGY>
10.7463

> <PUBCHEM_FEATURE_SELFOVERLAP>
20.297

> <PUBCHEM_SHAPE_FINGERPRINT>
12897270 3 18269552900200585518
14390081 3 18333732407457840340
16714656 1 18343584036327745919
20096714 4 18041563537768747264
21040471 1 18057029217028134059
23552423 10 18339356358000035967
23552449 1 17467645122963943794
24536 1 18271227348951161743
29004967 10 15626221342487466242
5084963 1 15936413363860577954

> <PUBCHEM_SHAPE_MULTIPOLES>
134.09
3.28
1.27
0.9
0.38
0
0.14
0.78
-0.74
-0.41
-0.14
0.09
-0.08
-0.27

> <PUBCHEM_SHAPE_SELFOVERLAP>
228.256

> <PUBCHEM_SHAPE_VOLUME>
90.7

> <PUBCHEM_COORDINATE_TYPE>
2
5
10

$$$$
