448751
  -OEChem-04231913503D

 21 21  0     0  0  0  0  0  0999 V2000
    3.8541   -0.0257   -0.1633 N   0  3  0  0  0  0  0  0  0  0  0  0
    1.5177    0.0181    0.6410 C   0  0  0  0  0  0  0  0  0  0  0  0
    2.4328    0.0217   -0.5875 C   0  0  0  0  0  0  0  0  0  0  0  0
    0.0613    0.0075    0.3190 C   0  0  0  0  0  0  0  0  0  0  0  0
   -0.6280    1.2105    0.1662 C   0  0  0  0  0  0  0  0  0  0  0  0
   -0.6115   -1.2053    0.1711 C   0  0  0  0  0  0  0  0  0  0  0  0
   -1.9901    1.2007   -0.1344 C   0  0  0  0  0  0  0  0  0  0  0  0
   -1.9735   -1.2153   -0.1296 C   0  0  0  0  0  0  0  0  0  0  0  0
   -2.6628   -0.0122   -0.2824 C   0  0  0  0  0  0  0  0  0  0  0  0
    1.7532   -0.8511    1.2703 H   0  0  0  0  0  0  0  0  0  0  0  0
    1.7452    0.8906    1.2684 H   0  0  0  0  0  0  0  0  0  0  0  0
    2.2638   -0.8528   -1.2237 H   0  0  0  0  0  0  0  0  0  0  0  0
    2.3081    0.9300   -1.1852 H   0  0  0  0  0  0  0  0  0  0  0  0
    4.4839   -0.0221   -0.9765 H   0  0  0  0  0  0  0  0  0  0  0  0
    4.0590   -0.8750    0.3798 H   0  0  0  0  0  0  0  0  0  0  0  0
    4.1018    0.7844    0.4202 H   0  0  0  0  0  0  0  0  0  0  0  0
   -0.1149    2.1621    0.2769 H   0  0  0  0  0  0  0  0  0  0  0  0
   -0.0854   -2.1494    0.2856 H   0  0  0  0  0  0  0  0  0  0  0  0
   -2.5268    2.1373   -0.2540 H   0  0  0  0  0  0  0  0  0  0  0  0
   -2.4974   -2.1597   -0.2454 H   0  0  0  0  0  0  0  0  0  0  0  0
   -3.7232   -0.0200   -0.5169 H   0  0  0  0  0  0  0  0  0  0  0  0
  1  3  1  0  0  0  0
  1 14  1  0  0  0  0
  1 15  1  0  0  0  0
  1 16  1  0  0  0  0
  2  3  1  0  0  0  0
  2  4  1  0  0  0  0
  2 10  1  0  0  0  0
  2 11  1  0  0  0  0
  3 12  1  0  0  0  0
  3 13  1  0  0  0  0
  4  5  2  0  0  0  0
  4  6  1  0  0  0  0
  5  7  1  0  0  0  0
  5 17  1  0  0  0  0
  6  8  2  0  0  0  0
  6 18  1  0  0  0  0
  7  9  2  0  0  0  0
  7 19  1  0  0  0  0
  8  9  1  0  0  0  0
  8 20  1  0  0  0  0
  9 21  1  0  0  0  0
M  CHG  1   1   1
M  END
> <PUBCHEM_COMPOUND_CID>
448751

> <PUBCHEM_CONFORMER_RMSD>
0.4

> <PUBCHEM_CONFORMER_DIVERSEORDER>
1
2
3

> <PUBCHEM_MMFF94_PARTIAL_CHARGES>
17
1 -0.85
14 0.45
15 0.45
16 0.45
17 0.15
18 0.15
19 0.15
2 0.14
20 0.15
21 0.15
3 0.5
4 -0.14
5 -0.15
6 -0.15
7 -0.15
8 -0.15
9 -0.15

> <PUBCHEM_EFFECTIVE_ROTOR_COUNT>
2

> <PUBCHEM_PHARMACOPHORE_FEATURES>
3
1 1 cation
1 1 donor
6 4 5 6 7 8 9 rings

> <PUBCHEM_HEAVY_ATOM_COUNT>
9

> <PUBCHEM_ATOM_DEF_STEREO_COUNT>
0

> <PUBCHEM_ATOM_UDEF_STEREO_COUNT>
0

> <PUBCHEM_BOND_DEF_STEREO_COUNT>
0

> <PUBCHEM_BOND_UDEF_STEREO_COUNT>
0

> <PUBCHEM_ISOTOPIC_ATOM_COUNT>
0

> <PUBCHEM_COMPONENT_COUNT>
1

> <PUBCHEM_CACTVS_TAUTO_COUNT>
1

> <PUBCHEM_CONFORMER_ID>
0006D8EF00000001

> <PUBCHEM_MMFF94_ENERGY>
18.6052

> <PUBCHEM_FEATURE_SELFOVERLAP>
15.223

> <PUBCHEM_SHAPE_FINGERPRINT>
12716758 59 18412259528003058842
12897270 3 18411699898159467062
13024252 1 17530969094204975083
14128692 85 18265616665853282269
14325111 11 18409166571956057576
16714656 1 18410573989720712041
16945 1 18410564094205726481
20201158 50 17917714591224357014
20645464 45 17844787317674393698
20653085 51 17968671440254483316
21040471 1 18267009562597253065
21293036 1 18408597072225015381
23235685 24 18410851019448651277
23552423 10 18189049965886883976
2748010 2 18049708917897787571
29004967 10 16415761937683990346
369184 2 18411699889379641386

> <PUBCHEM_SHAPE_MULTIPOLES>
180.23
4.62
1.27
0.73
4.17
0
-0.01
0.02
0.8
-0.83
-0.01
0.12
0
0

> <PUBCHEM_SHAPE_SELFOVERLAP>
362.528

> <PUBCHEM_SHAPE_VOLUME>
105.1

> <PUBCHEM_COORDINATE_TYPE>
2
5
10

$$$$
